% ------------- DIRECT, ADJOINT, AND LINEARIZED PROBLEM DEFINITION ------------%
SOLVER= INC_EULER                                                               
MATH_PROBLEM= DIRECT                                                            
KIND_TURB_MODEL= NONE                                                           
% -------------------- INCOMPRESSIBLE FREE-STREAM DEFINITION --------------------%
INC_DENSITY_INIT= 998.2                                                         
INC_VELOCITY_INIT= ( 1.775, 0.0, 0.0 )                                          
% ---------------------- BOUNDARY CONDITION DEFINITION -------------------------%
MARKER_EULER= ( airfoil, lower_wall, upper_wall )                               
MARKER_INLET= ( inlet, 0.0, 1.775, 0.9962, 0.0872, 0.0 )                        
MARKER_OUTLET= ( outlet, 0.0 )                                                  
INC_INLET_TYPE= VELOCITY_INLET                                                  
INC_OUTLET_TYPE= PRESSURE_OUTLET                                                
% ---------------------- NUMERICAL METHOD DEFINITION ---------------------------%
CFL_NUMBER= 100.0                                                               
CFL_ADAPT= NO                                                                   
RK_ALPHA_COEFF= ( 0.66667, 0.66667, 1.0 )                                       
CONV_NUM_METHOD_FLOW= JST                                                       
% MUSCL_FLOW is NOT used with JST scheme - removed or set to NO                 
SLOPE_LIMITER_FLOW= VENKATAKRISHNAN                                             
VENKAT_LIMITER_COEFF= 0.05                                                      
% ------------------------ LINEAR SOLVER DEFINITION ----------------------------%
LINEAR_SOLVER= FGMRES                                                           
LINEAR_SOLVER_PREC= ILU                                                         
LINEAR_SOLVER_ERROR= 1E-6                                                       
LINEAR_SOLVER_ITER= 10                                                          
% ------------------------ ITERATION AND CONVERGENCE PARAMETERS -----------------%
ITER= 500                                                                       
CONV_RESIDUAL_MINVAL= 1e-8                                                      
% ----------------------------- INPUT/OUTPUT -----------------------------------%
MESH_FILENAME= mesh_NACA0012_5deg_6814.su2                                      
SOLUTION_FILENAME= solution_flow.dat                                            
RESTART_FILENAME= restart_flow.dat                                              
VOLUME_FILENAME= volume_flow                                                    
SURFACE_FILENAME= surface_flow                                                  
TABULAR_FORMAT= TECPLOT                                                         
OUTPUT_WRT_FREQ= 100                                                            
OUTPUT_FILES= (RESTART, CSV, PARAVIEW, SURFACE_PARAVIEW, SURFACE_CSV)           
MARKER_PLOTTING= ( airfoil, lower_wall, upper_wall )                            
% What to write to the history file                                             
HISTORY_OUTPUT= ( ITER, RMS_PRESSURE, RMS_VELOCITY-X, RMS_VELOCITY-Y )          
